xflr5 v6.57

 Calculated polar for: NACA 0015

 1 1 Reynolds number fixed          Mach number fixed         

 xtrf =   1.000 (top)        1.000 (bottom)
 Mach =   0.035     Re =     0.153 e 6     Ncrit =   9.000

  alpha     CL        CD       CDp       Cm    Top Xtr Bot Xtr   Cpmin    Chinge    XCp    
 ------- -------- --------- --------- -------- ------- ------- -------- --------- ---------
   0.000  -0.0000   0.01311   0.00730  -0.0000  0.8347  0.8347  -0.5151   0.0000   0.0000   0.0000  -0.0186
   0.500   0.0608   0.01319   0.00732   0.0013  0.8006  0.8656  -0.5829   0.0000   0.0000   0.0000   0.2218
   1.000   0.1232   0.01345   0.00749   0.0020  0.7605  0.8925  -0.6602   0.0000   0.0000   0.0000   0.2276
   1.500   0.1945   0.01378   0.00765   0.0006  0.7172  0.9143  -0.7552   0.0000   0.0000   0.0000   0.2405
   2.000   0.2738   0.01414   0.00785  -0.0030  0.6691  0.9328  -0.8713   0.0000   0.0000   0.0000   0.2545
   2.500   0.3551   0.01446   0.00793  -0.0074  0.6189  0.9507  -1.0076   0.0000   0.0000   0.0000   0.2644
   3.000   0.4367   0.01476   0.00795  -0.0123  0.5661  0.9683  -1.1654   0.0000   0.0000   0.0000   0.2716
   3.500   0.5212   0.01498   0.00799  -0.0182  0.5101  0.9848  -1.3490   0.0000   0.0000   0.0000   0.2783
   4.000   0.6083   0.01517   0.00795  -0.0251  0.4522  0.9991  -1.5553   0.0000   0.0000   0.0000   0.2843
   4.500   0.6512   0.01539   0.00803  -0.0235  0.4059  1.0000  -1.7147   0.0000   0.0000   0.0000   0.2788
   5.000   0.6895   0.01579   0.00826  -0.0210  0.3625  1.0000  -1.8708   0.0000   0.0000   0.0000   0.2726
   5.500   0.7264   0.01629   0.00858  -0.0180  0.3196  1.0000  -2.0348   0.0000   0.0000   0.0000   0.2665
   6.000   0.7614   0.01693   0.00909  -0.0147  0.2790  1.0000  -2.2139   0.0000   0.0000   0.0000   0.2604
   6.500   0.7933   0.01786   0.00973  -0.0108  0.2423  1.0000  -2.3902   0.0000   0.0000   0.0000   0.2542
   7.000   0.8251   0.01870   0.01053  -0.0067  0.2091  1.0000  -2.5677   0.0000   0.0000   0.0000   0.2482
   7.500   0.8547   0.01980   0.01153  -0.0023  0.1821  1.0000  -2.7420   0.0000   0.0000   0.0000   0.2423
   8.000   0.8833   0.02106   0.01264   0.0022  0.1593  1.0000  -2.9259   0.0000   0.0000   0.0000   0.2365
   8.500   0.9124   0.02237   0.01389   0.0066  0.1407  1.0000  -3.1307   0.0000   0.0000   0.0000   0.2312
   9.000   0.9426   0.02386   0.01541   0.0107  0.1261  1.0000  -3.3356   0.0000   0.0000   0.0000   0.2264
   9.500   0.9728   0.02563   0.01717   0.0146  0.1137  1.0000  -3.5420   0.0000   0.0000   0.0000   0.2221
  10.000   1.0045   0.02770   0.01914   0.0179  0.1024  1.0000  -3.7593   0.0000   0.0000   0.0000   0.2188
  10.500   1.0335   0.02936   0.02108   0.0217  0.0946  1.0000  -3.9599   0.0000   0.0000   0.0000   0.2149
  11.000   1.0689   0.03243   0.02406   0.0238  0.0870  1.0000  -4.1746   0.0000   0.0000   0.0000   0.2130
  11.500   1.0908   0.03459   0.02662   0.0281  0.0822  1.0000  -4.3439   0.0000   0.0000   0.0000   0.2088
  12.000   1.1087   0.03670   0.02891   0.0325  0.0770  1.0000  -4.5434   0.0000   0.0000   0.0000   0.2045
  12.500   1.1271   0.04064   0.03294   0.0355  0.0720  1.0000  -4.7456   0.0000   0.0000   0.0000   0.2016
  13.000   1.1251   0.04405   0.03681   0.0404  0.0695  1.0000  -4.8653   0.0000   0.0000   0.0000   0.1963
  13.500   1.1183   0.04866   0.04183   0.0438  0.0671  1.0000  -4.9549   0.0000   0.0000   0.0000   0.1921
  14.000   1.1040   0.05438   0.04792   0.0455  0.0651  1.0000  -5.0075   0.0000   0.0000   0.0000   0.1890
  14.500   1.0801   0.06174   0.05566   0.0451  0.0637  1.0000  -5.0064   0.0000   0.0000   0.0000   0.1873
  15.000   1.0331   0.07308   0.06744   0.0409  0.0631  1.0000  -4.8658   0.0000   0.0000   0.0000   0.1882


