xflr5 v6.57

 Calculated polar for: NACA 0015

 1 1 Reynolds number fixed          Mach number fixed         

 xtrf =   1.000 (top)        1.000 (bottom)
 Mach =   0.060     Re =     3.200 e 6     Ncrit =   9.000

  alpha     CL        CD       CDp       Cm    Top Xtr Bot Xtr   Cpmin    Chinge    XCp    
 ------- -------- --------- --------- -------- ------- ------- -------- --------- ---------
   0.000   0.0000   0.00556   0.00097  -0.0000  0.4668  0.4668  -0.5196   0.0000   0.0000   0.0000   0.3992
   0.500   0.0565   0.00559   0.00098   0.0000  0.4308  0.5015  -0.5838   0.0000   0.0000   0.0000   0.2431
   1.000   0.1132   0.00564   0.00101  -0.0000  0.3944  0.5348  -0.6562   0.0000   0.0000   0.0000   0.2433
   1.500   0.1700   0.00569   0.00106  -0.0001  0.3632  0.5691  -0.7383   0.0000   0.0000   0.0000   0.2434
   2.000   0.2263   0.00576   0.00114   0.0000  0.3293  0.6076  -0.8311   0.0000   0.0000   0.0000   0.2429
   2.500   0.2821   0.00590   0.00124   0.0001  0.2914  0.6447  -0.9362   0.0000   0.0000   0.0000   0.2424
   3.000   0.3383   0.00602   0.00135   0.0002  0.2619  0.6803  -1.0556   0.0000   0.0000   0.0000   0.2421
   3.500   0.3942   0.00619   0.00150   0.0003  0.2325  0.7158  -1.1868   0.0000   0.0000   0.0000   0.2416
   4.000   0.4491   0.00640   0.00169   0.0006  0.1976  0.7546  -1.3375   0.0000   0.0000   0.0000   0.2408
   4.500   0.5045   0.00660   0.00188   0.0008  0.1738  0.7901  -1.4977   0.0000   0.0000   0.0000   0.2402
   5.000   0.5593   0.00687   0.00211   0.0012  0.1478  0.8225  -1.6801   0.0000   0.0000   0.0000   0.2395
   5.500   0.6139   0.00714   0.00237   0.0015  0.1271  0.8524  -1.8685   0.0000   0.0000   0.0000   0.2388
   6.000   0.6676   0.00747   0.00267   0.0021  0.1044  0.8816  -2.0775   0.0000   0.0000   0.0000   0.2378
   6.500   0.7214   0.00779   0.00297   0.0026  0.0902  0.9068  -2.3055   0.0000   0.0000   0.0000   0.2368
   7.000   0.7749   0.00811   0.00329   0.0032  0.0793  0.9281  -2.5409   0.0000   0.0000   0.0000   0.2359
   7.500   0.8279   0.00846   0.00363   0.0039  0.0692  0.9462  -2.7827   0.0000   0.0000   0.0000   0.2348
   8.000   0.8789   0.00888   0.00401   0.0049  0.0586  0.9626  -3.0444   0.0000   0.0000   0.0000   0.2334
   8.500   0.9301   0.00931   0.00440   0.0059  0.0523  0.9762  -3.3336   0.0000   0.0000   0.0000   0.2321
   9.000   0.9854   0.00974   0.00480   0.0060  0.0464  0.9851  -3.6432   0.0000   0.0000   0.0000   0.2319
   9.500   1.0409   0.01024   0.00527   0.0059  0.0419  0.9925  -3.9643   0.0000   0.0000   0.0000   0.2317
  10.000   1.1041   0.01081   0.00580   0.0040  0.0362  0.9945  -4.3161   0.0000   0.0000   0.0000   0.2331
  10.500   1.1674   0.01131   0.00629   0.0021  0.0343  0.9963  -4.6821   0.0000   0.0000   0.0000   0.2343
  11.000   1.2274   0.01203   0.00695   0.0006  0.0293  0.9984  -5.0463   0.0000   0.0000   0.0000   0.2349
  11.500   1.2875   0.01266   0.00758  -0.0007  0.0268  1.0000  -5.4428   0.0000   0.0000   0.0000   0.2353
  12.000   1.3224   0.01310   0.00804   0.0032  0.0263  1.0000  -5.7881   0.0000   0.0000   0.0000   0.2315
  12.500   1.3588   0.01365   0.00860   0.0067  0.0250  1.0000  -6.1466   0.0000   0.0000   0.0000   0.2282
  13.000   1.3969   0.01438   0.00933   0.0096  0.0231  1.0000  -6.5178   0.0000   0.0000   0.0000   0.2255
  13.500   1.4338   0.01525   0.01020   0.0125  0.0204  1.0000  -6.8890   0.0000   0.0000   0.0000   0.2228
  14.000   1.4644   0.01618   0.01119   0.0165  0.0188  1.0000  -7.2387   0.0000   0.0000   0.0000   0.2195
  14.500   1.4993   0.01698   0.01203   0.0194  0.0188  1.0000  -7.6237   0.0000   0.0000   0.0000   0.2169
  15.000   1.5334   0.01790   0.01301   0.0221  0.0186  1.0000  -8.0126   0.0000   0.0000   0.0000   0.2145
  15.500   1.5654   0.01900   0.01416   0.0247  0.0183  1.0000  -8.3973   0.0000   0.0000   0.0000   0.2122
  16.000   1.5947   0.02036   0.01557   0.0273  0.0177  1.0000  -8.7741   0.0000   0.0000   0.0000   0.2099
  16.500   1.6194   0.02209   0.01735   0.0298  0.0169  1.0000  -9.1319   0.0000   0.0000   0.0000   0.2075
  17.000   1.6387   0.02441   0.01973   0.0322  0.0159  1.0000  -9.4622   0.0000   0.0000   0.0000   0.2052
  17.500   1.6525   0.02734   0.02273   0.0342  0.0147  1.0000  -9.7605   0.0000   0.0000   0.0000   0.2030
  18.000   1.6613   0.03108   0.02659   0.0355  0.0136  1.0000  -10.0250   0.0000   0.0000   0.0000   0.2012
  18.500   1.6634   0.03576   0.03142   0.0360  0.0129  1.0000  -10.2480   0.0000   0.0000   0.0000   0.1997
  19.000   1.6580   0.04167   0.03751   0.0355  0.0124  1.0000  -10.4209   0.0000   0.0000   0.0000   0.1986
  19.500   1.6437   0.04910   0.04515   0.0338  0.0122  1.0000  -10.5309   0.0000   0.0000   0.0000   0.1980
  20.000   1.6295   0.05683   0.05304   0.0315  0.0121  1.0000  -10.6446   0.0000   0.0000   0.0000   0.1979
  20.500   1.6067   0.06612   0.06251   0.0281  0.0121  1.0000  -10.6910   0.0000   0.0000   0.0000   0.1982
  21.000   1.5725   0.07718   0.07378   0.0236  0.0121  1.0000  -10.6449   0.0000   0.0000   0.0000   0.1992
  21.500   1.5266   0.09026   0.08708   0.0180  0.0121  1.0000  -10.4954   0.0000   0.0000   0.0000   0.2009
  22.000   1.4715   0.10524   0.10229   0.0109  0.0121  1.0000  -10.2492   0.0000   0.0000   0.0000   0.2038
  22.500   1.4087   0.12170   0.11900   0.0026  0.0121  1.0000  -9.9065   0.0000   0.0000   0.0000   0.2078
  23.000   1.3475   0.13889   0.13642  -0.0067  0.0121  1.0000  -9.5262   0.0000   0.0000   0.0000   0.2133
  23.500   1.3055   0.15335   0.15107  -0.0152  0.0121  1.0000  -9.2666   0.0000   0.0000   0.0000   0.2185
  24.000   1.2556   0.16976   0.16768  -0.0253  0.0121  1.0000  -8.8824   0.0000   0.0000   0.0000   0.2257
  25.000   1.2039   0.19575   0.19393  -0.0425  0.0120  1.0000  -8.4661   0.0000   0.0000   0.0000   0.2382
  25.500   1.2005   0.20441   0.20267  -0.0487  0.0118  1.0000  -8.4984   0.0000   0.0000   0.0000   0.2420
  26.000   1.1822   0.21685   0.21522  -0.0574  0.0117  1.0000  -8.3147   0.0000   0.0000   0.0000   0.2487


